
---------- Begin Simulation Statistics ----------
simSeconds                                   1.052276                       # Number of seconds simulated (Second)
simTicks                                 1052276290000                       # Number of ticks simulated (Tick)
finalTick                                1052276290000                       # Number of ticks from beginning of simulation (restored from checkpoints and never reset) (Tick)
simFreq                                  1000000000000                       # The number of ticks per simulated second ((Tick/Second))
hostSeconds                                    201.61                       # Real time elapsed on the host (Second)
hostTickRate                               5219239788                       # The number of ticks simulated per host second (ticks/s) ((Tick/Second))
hostMemory                                     883964                       # Number of bytes of host memory used (Byte)
simInsts                                    237262483                       # Number of instructions simulated (Count)
simOps                                      281210367                       # Number of ops (including micro ops) simulated (Count)
hostInstRate                                  1176810                       # Simulator instruction rate (inst/s) ((Count/Second))
hostOpRate                                    1394789                       # Simulator op (including micro ops) rate (op/s) ((Count/Second))
system.bridge.power_state.pwrStateResidencyTicks::UNDEFINED 1052276290000                       # Cumulative time (in ticks) in various power states (Tick)
system.clk_domain.clock                          1000                       # Clock period in ticks (Tick)
system.cpu0.numCycles                      2104325311                       # Number of cpu cycles simulated (Cycle)
system.cpu0.numWorkItemsStarted                     0                       # Number of work items this cpu started (Count)
system.cpu0.numWorkItemsCompleted                   0                       # Number of work items this cpu completed (Count)
system.cpu0.exec_context.thread_0.numInsts     83017860                       # Number of instructions committed (Count)
system.cpu0.exec_context.thread_0.numOps     98400888                       # Number of ops (including micro ops) committed (Count)
system.cpu0.exec_context.thread_0.numIntAluAccesses     90251851                       # Number of integer alu accesses (Count)
system.cpu0.exec_context.thread_0.numFpAluAccesses            0                       # Number of float alu accesses (Count)
system.cpu0.exec_context.thread_0.numVecAluAccesses        91441                       # Number of vector alu accesses (Count)
system.cpu0.exec_context.thread_0.numCallsReturns      5886074                       # Number of times a function call or return occured (Count)
system.cpu0.exec_context.thread_0.numCondCtrlInsts     12176123                       # Number of instructions that are conditional controls (Count)
system.cpu0.exec_context.thread_0.numIntInsts     90251851                       # Number of integer instructions (Count)
system.cpu0.exec_context.thread_0.numFpInsts            0                       # Number of float instructions (Count)
system.cpu0.exec_context.thread_0.numVecInsts        91441                       # Number of vector instructions (Count)
system.cpu0.exec_context.thread_0.numIntRegReads    122421985                       # Number of times the integer registers were read (Count)
system.cpu0.exec_context.thread_0.numIntRegWrites     72738285                       # Number of times the integer registers were written (Count)
system.cpu0.exec_context.thread_0.numFpRegReads            0                       # Number of times the floating registers were read (Count)
system.cpu0.exec_context.thread_0.numFpRegWrites            0                       # Number of times the floating registers were written (Count)
system.cpu0.exec_context.thread_0.numVecRegReads       131633                       # Number of times the vector registers were read (Count)
system.cpu0.exec_context.thread_0.numVecRegWrites        76576                       # Number of times the vector registers were written (Count)
system.cpu0.exec_context.thread_0.numVecPredRegReads            0                       # Number of times the predicate registers were read (Count)
system.cpu0.exec_context.thread_0.numVecPredRegWrites            0                       # Number of times the predicate registers were written (Count)
system.cpu0.exec_context.thread_0.numCCRegReads     22245531                       # Number of times the CC registers were read (Count)
system.cpu0.exec_context.thread_0.numCCRegWrites     21860745                       # Number of times the CC registers were written (Count)
system.cpu0.exec_context.thread_0.numMemRefs     29502694                       # Number of memory refs (Count)
system.cpu0.exec_context.thread_0.numLoadInsts     16159334                       # Number of load instructions (Count)
system.cpu0.exec_context.thread_0.numStoreInsts     13343360                       # Number of store instructions (Count)
system.cpu0.exec_context.thread_0.numIdleCycles 2005936577.980525                       # Number of idle cycles (Cycle)
system.cpu0.exec_context.thread_0.numBusyCycles 98388733.019475                       # Number of busy cycles (Cycle)
system.cpu0.exec_context.thread_0.notIdleFraction     0.046755                       # Percentage of non-idle cycles (Ratio)
system.cpu0.exec_context.thread_0.idleFraction     0.953245                       # Percentage of idle cycles (Ratio)
system.cpu0.exec_context.thread_0.numBranches     19276007                       # Number of branches fetched (Count)
system.cpu0.exec_context.thread_0.statExecutedInstType::No_OpClass         3879      0.00%      0.00% # Class of executed instruction. (Count)
system.cpu0.exec_context.thread_0.statExecutedInstType::IntAlu     68636297     69.75%     69.75% # Class of executed instruction. (Count)
system.cpu0.exec_context.thread_0.statExecutedInstType::IntMult       188784      0.19%     69.95% # Class of executed instruction. (Count)
system.cpu0.exec_context.thread_0.statExecutedInstType::IntDiv         6530      0.01%     69.95% # Class of executed instruction. (Count)
system.cpu0.exec_context.thread_0.statExecutedInstType::FloatAdd            0      0.00%     69.95% # Class of executed instruction. (Count)
system.cpu0.exec_context.thread_0.statExecutedInstType::FloatCmp            0      0.00%     69.95% # Class of executed instruction. (Count)
system.cpu0.exec_context.thread_0.statExecutedInstType::FloatCvt            0      0.00%     69.95% # Class of executed instruction. (Count)
system.cpu0.exec_context.thread_0.statExecutedInstType::FloatMult            0      0.00%     69.95% # Class of executed instruction. (Count)
system.cpu0.exec_context.thread_0.statExecutedInstType::FloatMultAcc            0      0.00%     69.95% # Class of executed instruction. (Count)
system.cpu0.exec_context.thread_0.statExecutedInstType::FloatDiv            0      0.00%     69.95% # Class of executed instruction. (Count)
system.cpu0.exec_context.thread_0.statExecutedInstType::FloatMisc            0      0.00%     69.95% # Class of executed instruction. (Count)
system.cpu0.exec_context.thread_0.statExecutedInstType::FloatSqrt            0      0.00%     69.95% # Class of executed instruction. (Count)
system.cpu0.exec_context.thread_0.statExecutedInstType::SimdAdd        11542      0.01%     69.96% # Class of executed instruction. (Count)
system.cpu0.exec_context.thread_0.statExecutedInstType::SimdAddAcc            0      0.00%     69.96% # Class of executed instruction. (Count)
system.cpu0.exec_context.thread_0.statExecutedInstType::SimdAlu        27507      0.03%     69.99% # Class of executed instruction. (Count)
system.cpu0.exec_context.thread_0.statExecutedInstType::SimdCmp        15388      0.02%     70.01% # Class of executed instruction. (Count)
system.cpu0.exec_context.thread_0.statExecutedInstType::SimdCvt            0      0.00%     70.01% # Class of executed instruction. (Count)
system.cpu0.exec_context.thread_0.statExecutedInstType::SimdMisc        10506      0.01%     70.02% # Class of executed instruction. (Count)
system.cpu0.exec_context.thread_0.statExecutedInstType::SimdMult            0      0.00%     70.02% # Class of executed instruction. (Count)
system.cpu0.exec_context.thread_0.statExecutedInstType::SimdMultAcc            0      0.00%     70.02% # Class of executed instruction. (Count)
system.cpu0.exec_context.thread_0.statExecutedInstType::SimdShift            0      0.00%     70.02% # Class of executed instruction. (Count)
system.cpu0.exec_context.thread_0.statExecutedInstType::SimdShiftAcc            0      0.00%     70.02% # Class of executed instruction. (Count)
system.cpu0.exec_context.thread_0.statExecutedInstType::SimdDiv            0      0.00%     70.02% # Class of executed instruction. (Count)
system.cpu0.exec_context.thread_0.statExecutedInstType::SimdSqrt            0      0.00%     70.02% # Class of executed instruction. (Count)
system.cpu0.exec_context.thread_0.statExecutedInstType::SimdFloatAdd            0      0.00%     70.02% # Class of executed instruction. (Count)
system.cpu0.exec_context.thread_0.statExecutedInstType::SimdFloatAlu            0      0.00%     70.02% # Class of executed instruction. (Count)
system.cpu0.exec_context.thread_0.statExecutedInstType::SimdFloatCmp            0      0.00%     70.02% # Class of executed instruction. (Count)
system.cpu0.exec_context.thread_0.statExecutedInstType::SimdFloatCvt            0      0.00%     70.02% # Class of executed instruction. (Count)
system.cpu0.exec_context.thread_0.statExecutedInstType::SimdFloatDiv            0      0.00%     70.02% # Class of executed instruction. (Count)
system.cpu0.exec_context.thread_0.statExecutedInstType::SimdFloatMisc            0      0.00%     70.02% # Class of executed instruction. (Count)
system.cpu0.exec_context.thread_0.statExecutedInstType::SimdFloatMult            0      0.00%     70.02% # Class of executed instruction. (Count)
system.cpu0.exec_context.thread_0.statExecutedInstType::SimdFloatMultAcc            0      0.00%     70.02% # Class of executed instruction. (Count)
system.cpu0.exec_context.thread_0.statExecutedInstType::SimdFloatSqrt            0      0.00%     70.02% # Class of executed instruction. (Count)
system.cpu0.exec_context.thread_0.statExecutedInstType::SimdReduceAdd            0      0.00%     70.02% # Class of executed instruction. (Count)
system.cpu0.exec_context.thread_0.statExecutedInstType::SimdReduceAlu            0      0.00%     70.02% # Class of executed instruction. (Count)
system.cpu0.exec_context.thread_0.statExecutedInstType::SimdReduceCmp            0      0.00%     70.02% # Class of executed instruction. (Count)
system.cpu0.exec_context.thread_0.statExecutedInstType::SimdFloatReduceAdd            0      0.00%     70.02% # Class of executed instruction. (Count)
system.cpu0.exec_context.thread_0.statExecutedInstType::SimdFloatReduceCmp            0      0.00%     70.02% # Class of executed instruction. (Count)
system.cpu0.exec_context.thread_0.statExecutedInstType::SimdAes            0      0.00%     70.02% # Class of executed instruction. (Count)
system.cpu0.exec_context.thread_0.statExecutedInstType::SimdAesMix            0      0.00%     70.02% # Class of executed instruction. (Count)
system.cpu0.exec_context.thread_0.statExecutedInstType::SimdSha1Hash            0      0.00%     70.02% # Class of executed instruction. (Count)
system.cpu0.exec_context.thread_0.statExecutedInstType::SimdSha1Hash2            0      0.00%     70.02% # Class of executed instruction. (Count)
system.cpu0.exec_context.thread_0.statExecutedInstType::SimdSha256Hash            0      0.00%     70.02% # Class of executed instruction. (Count)
system.cpu0.exec_context.thread_0.statExecutedInstType::SimdSha256Hash2            0      0.00%     70.02% # Class of executed instruction. (Count)
system.cpu0.exec_context.thread_0.statExecutedInstType::SimdShaSigma2            0      0.00%     70.02% # Class of executed instruction. (Count)
system.cpu0.exec_context.thread_0.statExecutedInstType::SimdShaSigma3            0      0.00%     70.02% # Class of executed instruction. (Count)
system.cpu0.exec_context.thread_0.statExecutedInstType::SimdPredAlu            0      0.00%     70.02% # Class of executed instruction. (Count)
system.cpu0.exec_context.thread_0.statExecutedInstType::MemRead     16159334     16.42%     86.44% # Class of executed instruction. (Count)
system.cpu0.exec_context.thread_0.statExecutedInstType::MemWrite     13343360     13.56%    100.00% # Class of executed instruction. (Count)
system.cpu0.exec_context.thread_0.statExecutedInstType::FloatMemRead            0      0.00%    100.00% # Class of executed instruction. (Count)
system.cpu0.exec_context.thread_0.statExecutedInstType::FloatMemWrite            0      0.00%    100.00% # Class of executed instruction. (Count)
system.cpu0.exec_context.thread_0.statExecutedInstType::IprAccess            0      0.00%    100.00% # Class of executed instruction. (Count)
system.cpu0.exec_context.thread_0.statExecutedInstType::InstPrefetch            0      0.00%    100.00% # Class of executed instruction. (Count)
system.cpu0.exec_context.thread_0.statExecutedInstType::total     98403127                       # Class of executed instruction. (Count)
system.cpu0.mmu.dtb.instHits                        0                       # ITB inst hits (Count)
system.cpu0.mmu.dtb.instMisses                      0                       # ITB inst misses (Count)
system.cpu0.mmu.dtb.readHits                 16159545                       # DTB read hits (Count)
system.cpu0.mmu.dtb.readMisses                  15915                       # DTB read misses (Count)
system.cpu0.mmu.dtb.writeHits                13343222                       # DTB write hits (Count)
system.cpu0.mmu.dtb.writeMisses                  2343                       # DTB write misses (Count)
system.cpu0.mmu.dtb.inserts                     17746                       # Number of times an entry is inserted into the TLB (Count)
system.cpu0.mmu.dtb.flushTlb                        9                       # Number of times complete TLB was flushed (Count)
system.cpu0.mmu.dtb.flushTlbMva                  1239                       # Number of times TLB was flushed by MVA (Count)
system.cpu0.mmu.dtb.flushTlbMvaAsid              1678                       # Number of times TLB was flushed by MVA & ASID (Count)
system.cpu0.mmu.dtb.flushTlbAsid                   13                       # Number of times TLB was flushed by ASID (Count)
system.cpu0.mmu.dtb.flushedEntries               1099                       # Number of entries that have been flushed from TLB (Count)
system.cpu0.mmu.dtb.alignFaults                     0                       # Number of TLB faults due to alignment restrictions (Count)
system.cpu0.mmu.dtb.prefetchFaults               2001                       # Number of TLB faults due to prefetch (Count)
system.cpu0.mmu.dtb.domainFaults                    0                       # Number of TLB faults due to domain restrictions (Count)
system.cpu0.mmu.dtb.permsFaults                   281                       # Number of TLB faults due to permissions restrictions (Count)
system.cpu0.mmu.dtb.readAccesses             16175460                       # DTB read accesses (Count)
system.cpu0.mmu.dtb.writeAccesses            13345565                       # DTB write accesses (Count)
system.cpu0.mmu.dtb.instAccesses                    0                       # ITB inst accesses (Count)
system.cpu0.mmu.dtb.hits                     29502767                       # Total TLB (inst and data) hits (Count)
system.cpu0.mmu.dtb.misses                      18258                       # Total TLB (inst and data) misses (Count)
system.cpu0.mmu.dtb.accesses                 29521025                       # Total TLB (inst and data) accesses (Count)
system.cpu0.mmu.dtb.stage2_mmu.stage2_tlb.instHits            0                       # ITB inst hits (Count)
system.cpu0.mmu.dtb.stage2_mmu.stage2_tlb.instMisses            0                       # ITB inst misses (Count)
system.cpu0.mmu.dtb.stage2_mmu.stage2_tlb.readHits            0                       # DTB read hits (Count)
system.cpu0.mmu.dtb.stage2_mmu.stage2_tlb.readMisses            0                       # DTB read misses (Count)
system.cpu0.mmu.dtb.stage2_mmu.stage2_tlb.writeHits            0                       # DTB write hits (Count)
system.cpu0.mmu.dtb.stage2_mmu.stage2_tlb.writeMisses            0                       # DTB write misses (Count)
system.cpu0.mmu.dtb.stage2_mmu.stage2_tlb.inserts            0                       # Number of times an entry is inserted into the TLB (Count)
system.cpu0.mmu.dtb.stage2_mmu.stage2_tlb.flushTlb            0                       # Number of times complete TLB was flushed (Count)
system.cpu0.mmu.dtb.stage2_mmu.stage2_tlb.flushTlbMva            0                       # Number of times TLB was flushed by MVA (Count)
system.cpu0.mmu.dtb.stage2_mmu.stage2_tlb.flushTlbMvaAsid            0                       # Number of times TLB was flushed by MVA & ASID (Count)
system.cpu0.mmu.dtb.stage2_mmu.stage2_tlb.flushTlbAsid            0                       # Number of times TLB was flushed by ASID (Count)
system.cpu0.mmu.dtb.stage2_mmu.stage2_tlb.flushedEntries            0                       # Number of entries that have been flushed from TLB (Count)
system.cpu0.mmu.dtb.stage2_mmu.stage2_tlb.alignFaults            0                       # Number of TLB faults due to alignment restrictions (Count)
system.cpu0.mmu.dtb.stage2_mmu.stage2_tlb.prefetchFaults            0                       # Number of TLB faults due to prefetch (Count)
system.cpu0.mmu.dtb.stage2_mmu.stage2_tlb.domainFaults            0                       # Number of TLB faults due to domain restrictions (Count)
system.cpu0.mmu.dtb.stage2_mmu.stage2_tlb.permsFaults            0                       # Number of TLB faults due to permissions restrictions (Count)
system.cpu0.mmu.dtb.stage2_mmu.stage2_tlb.readAccesses            0                       # DTB read accesses (Count)
system.cpu0.mmu.dtb.stage2_mmu.stage2_tlb.writeAccesses            0                       # DTB write accesses (Count)
system.cpu0.mmu.dtb.stage2_mmu.stage2_tlb.instAccesses            0                       # ITB inst accesses (Count)
system.cpu0.mmu.dtb.stage2_mmu.stage2_tlb.hits            0                       # Total TLB (inst and data) hits (Count)
system.cpu0.mmu.dtb.stage2_mmu.stage2_tlb.misses            0                       # Total TLB (inst and data) misses (Count)
system.cpu0.mmu.dtb.stage2_mmu.stage2_tlb.accesses            0                       # Total TLB (inst and data) accesses (Count)
system.cpu0.mmu.dtb.stage2_mmu.stage2_tlb.walker.walks            0                       # Table walker walks requested (Count)
system.cpu0.mmu.dtb.stage2_mmu.stage2_tlb.walker.requestOrigin_Requested::Data            0                       # Table walker requests started/completed, data/inst (Count)
system.cpu0.mmu.dtb.stage2_mmu.stage2_tlb.walker.requestOrigin_Requested::Inst            0                       # Table walker requests started/completed, data/inst (Count)
system.cpu0.mmu.dtb.stage2_mmu.stage2_tlb.walker.requestOrigin_Requested::total            0                       # Table walker requests started/completed, data/inst (Count)
system.cpu0.mmu.dtb.stage2_mmu.stage2_tlb.walker.requestOrigin_Completed::Data            0                       # Table walker requests started/completed, data/inst (Count)
system.cpu0.mmu.dtb.stage2_mmu.stage2_tlb.walker.requestOrigin_Completed::Inst            0                       # Table walker requests started/completed, data/inst (Count)
system.cpu0.mmu.dtb.stage2_mmu.stage2_tlb.walker.requestOrigin_Completed::total            0                       # Table walker requests started/completed, data/inst (Count)
system.cpu0.mmu.dtb.stage2_mmu.stage2_tlb.walker.requestOrigin::total            0                       # Table walker requests started/completed, data/inst (Count)
system.cpu0.mmu.dtb.stage2_mmu.stage2_tlb.walker.power_state.pwrStateResidencyTicks::UNDEFINED 1052276290000                       # Cumulative time (in ticks) in various power states (Tick)
system.cpu0.mmu.dtb.walker.walks                18258                       # Table walker walks requested (Count)
system.cpu0.mmu.dtb.walker.walksLongDescriptor        18258                       # Table walker walks initiated with long descriptors (Count)
system.cpu0.mmu.dtb.walker.walkWaitTime::samples        18258                       # Table walker wait (enqueue to first request) latency (Tick)
system.cpu0.mmu.dtb.walker.walkWaitTime::0        18258    100.00%    100.00% # Table walker wait (enqueue to first request) latency (Tick)
system.cpu0.mmu.dtb.walker.walkWaitTime::total        18258                       # Table walker wait (enqueue to first request) latency (Tick)
system.cpu0.mmu.dtb.walker.pendingWalks::samples      3649000                       # Table walker pending requests distribution (Tick)
system.cpu0.mmu.dtb.walker.pendingWalks::0      3649000    100.00%    100.00% # Table walker pending requests distribution (Tick)
system.cpu0.mmu.dtb.walker.pendingWalks::total      3649000                       # Table walker pending requests distribution (Tick)
system.cpu0.mmu.dtb.walker.pageSizes::4KiB        17003     95.81%     95.81% # Table walker page sizes translated (Count)
system.cpu0.mmu.dtb.walker.pageSizes::2MiB          743      4.19%    100.00% # Table walker page sizes translated (Count)
system.cpu0.mmu.dtb.walker.pageSizes::total        17746                       # Table walker page sizes translated (Count)
system.cpu0.mmu.dtb.walker.requestOrigin_Requested::Data        18258                       # Table walker requests started/completed, data/inst (Count)
system.cpu0.mmu.dtb.walker.requestOrigin_Requested::Inst            0                       # Table walker requests started/completed, data/inst (Count)
system.cpu0.mmu.dtb.walker.requestOrigin_Requested::total        18258                       # Table walker requests started/completed, data/inst (Count)
system.cpu0.mmu.dtb.walker.requestOrigin_Completed::Data        17746                       # Table walker requests started/completed, data/inst (Count)
system.cpu0.mmu.dtb.walker.requestOrigin_Completed::Inst            0                       # Table walker requests started/completed, data/inst (Count)
system.cpu0.mmu.dtb.walker.requestOrigin_Completed::total        17746                       # Table walker requests started/completed, data/inst (Count)
system.cpu0.mmu.dtb.walker.requestOrigin::total        36004                       # Table walker requests started/completed, data/inst (Count)
system.cpu0.mmu.dtb.walker.power_state.pwrStateResidencyTicks::UNDEFINED 1052276290000                       # Cumulative time (in ticks) in various power states (Tick)
system.cpu0.mmu.itb.instHits                 82962864                       # ITB inst hits (Count)
system.cpu0.mmu.itb.instMisses                  52721                       # ITB inst misses (Count)
system.cpu0.mmu.itb.readHits                        0                       # DTB read hits (Count)
system.cpu0.mmu.itb.readMisses                      0                       # DTB read misses (Count)
system.cpu0.mmu.itb.writeHits                       0                       # DTB write hits (Count)
system.cpu0.mmu.itb.writeMisses                     0                       # DTB write misses (Count)
system.cpu0.mmu.itb.inserts                     52507                       # Number of times an entry is inserted into the TLB (Count)
system.cpu0.mmu.itb.flushTlb                        9                       # Number of times complete TLB was flushed (Count)
system.cpu0.mmu.itb.flushTlbMva                  1239                       # Number of times TLB was flushed by MVA (Count)
system.cpu0.mmu.itb.flushTlbMvaAsid              1678                       # Number of times TLB was flushed by MVA & ASID (Count)
system.cpu0.mmu.itb.flushTlbAsid                   13                       # Number of times TLB was flushed by ASID (Count)
system.cpu0.mmu.itb.flushedEntries                533                       # Number of entries that have been flushed from TLB (Count)
system.cpu0.mmu.itb.alignFaults                     0                       # Number of TLB faults due to alignment restrictions (Count)
system.cpu0.mmu.itb.prefetchFaults                  0                       # Number of TLB faults due to prefetch (Count)
system.cpu0.mmu.itb.domainFaults                    0                       # Number of TLB faults due to domain restrictions (Count)
system.cpu0.mmu.itb.permsFaults                     0                       # Number of TLB faults due to permissions restrictions (Count)
system.cpu0.mmu.itb.readAccesses                    0                       # DTB read accesses (Count)
system.cpu0.mmu.itb.writeAccesses                   0                       # DTB write accesses (Count)
system.cpu0.mmu.itb.instAccesses             83015585                       # ITB inst accesses (Count)
system.cpu0.mmu.itb.hits                     82962864                       # Total TLB (inst and data) hits (Count)
system.cpu0.mmu.itb.misses                      52721                       # Total TLB (inst and data) misses (Count)
system.cpu0.mmu.itb.accesses                 83015585                       # Total TLB (inst and data) accesses (Count)
system.cpu0.mmu.itb.stage2_mmu.stage2_tlb.instHits            0                       # ITB inst hits (Count)
system.cpu0.mmu.itb.stage2_mmu.stage2_tlb.instMisses            0                       # ITB inst misses (Count)
system.cpu0.mmu.itb.stage2_mmu.stage2_tlb.readHits            0                       # DTB read hits (Count)
system.cpu0.mmu.itb.stage2_mmu.stage2_tlb.readMisses            0                       # DTB read misses (Count)
system.cpu0.mmu.itb.stage2_mmu.stage2_tlb.writeHits            0                       # DTB write hits (Count)
system.cpu0.mmu.itb.stage2_mmu.stage2_tlb.writeMisses            0                       # DTB write misses (Count)
system.cpu0.mmu.itb.stage2_mmu.stage2_tlb.inserts            0                       # Number of times an entry is inserted into the TLB (Count)
system.cpu0.mmu.itb.stage2_mmu.stage2_tlb.flushTlb            0                       # Number of times complete TLB was flushed (Count)
system.cpu0.mmu.itb.stage2_mmu.stage2_tlb.flushTlbMva            0                       # Number of times TLB was flushed by MVA (Count)
system.cpu0.mmu.itb.stage2_mmu.stage2_tlb.flushTlbMvaAsid            0                       # Number of times TLB was flushed by MVA & ASID (Count)
system.cpu0.mmu.itb.stage2_mmu.stage2_tlb.flushTlbAsid            0                       # Number of times TLB was flushed by ASID (Count)
system.cpu0.mmu.itb.stage2_mmu.stage2_tlb.flushedEntries            0                       # Number of entries that have been flushed from TLB (Count)
system.cpu0.mmu.itb.stage2_mmu.stage2_tlb.alignFaults            0                       # Number of TLB faults due to alignment restrictions (Count)
system.cpu0.mmu.itb.stage2_mmu.stage2_tlb.prefetchFaults            0                       # Number of TLB faults due to prefetch (Count)
system.cpu0.mmu.itb.stage2_mmu.stage2_tlb.domainFaults            0                       # Number of TLB faults due to domain restrictions (Count)
system.cpu0.mmu.itb.stage2_mmu.stage2_tlb.permsFaults            0                       # Number of TLB faults due to permissions restrictions (Count)
system.cpu0.mmu.itb.stage2_mmu.stage2_tlb.readAccesses            0                       # DTB read accesses (Count)
system.cpu0.mmu.itb.stage2_mmu.stage2_tlb.writeAccesses            0                       # DTB write accesses (Count)
system.cpu0.mmu.itb.stage2_mmu.stage2_tlb.instAccesses            0                       # ITB inst accesses (Count)
system.cpu0.mmu.itb.stage2_mmu.stage2_tlb.hits            0                       # Total TLB (inst and data) hits (Count)
system.cpu0.mmu.itb.stage2_mmu.stage2_tlb.misses            0                       # Total TLB (inst and data) misses (Count)
system.cpu0.mmu.itb.stage2_mmu.stage2_tlb.accesses            0                       # Total TLB (inst and data) accesses (Count)
system.cpu0.mmu.itb.stage2_mmu.stage2_tlb.walker.walks            0                       # Table walker walks requested (Count)
system.cpu0.mmu.itb.stage2_mmu.stage2_tlb.walker.requestOrigin_Requested::Data            0                       # Table walker requests started/completed, data/inst (Count)
system.cpu0.mmu.itb.stage2_mmu.stage2_tlb.walker.requestOrigin_Requested::Inst            0                       # Table walker requests started/completed, data/inst (Count)
system.cpu0.mmu.itb.stage2_mmu.stage2_tlb.walker.requestOrigin_Requested::total            0                       # Table walker requests started/completed, data/inst (Count)
system.cpu0.mmu.itb.stage2_mmu.stage2_tlb.walker.requestOrigin_Completed::Data            0                       # Table walker requests started/completed, data/inst (Count)
system.cpu0.mmu.itb.stage2_mmu.stage2_tlb.walker.requestOrigin_Completed::Inst            0                       # Table walker requests started/completed, data/inst (Count)
system.cpu0.mmu.itb.stage2_mmu.stage2_tlb.walker.requestOrigin_Completed::total            0                       # Table walker requests started/completed, data/inst (Count)
system.cpu0.mmu.itb.stage2_mmu.stage2_tlb.walker.requestOrigin::total            0                       # Table walker requests started/completed, data/inst (Count)
system.cpu0.mmu.itb.stage2_mmu.stage2_tlb.walker.power_state.pwrStateResidencyTicks::UNDEFINED 1052276290000                       # Cumulative time (in ticks) in various power states (Tick)
system.cpu0.mmu.itb.walker.walks                52721                       # Table walker walks requested (Count)
system.cpu0.mmu.itb.walker.walksLongDescriptor        52721                       # Table walker walks initiated with long descriptors (Count)
system.cpu0.mmu.itb.walker.walkWaitTime::samples        52721                       # Table walker wait (enqueue to first request) latency (Tick)
system.cpu0.mmu.itb.walker.walkWaitTime::0        52721    100.00%    100.00% # Table walker wait (enqueue to first request) latency (Tick)
system.cpu0.mmu.itb.walker.walkWaitTime::total        52721                       # Table walker wait (enqueue to first request) latency (Tick)
system.cpu0.mmu.itb.walker.pendingWalks::samples      3646500                       # Table walker pending requests distribution (Tick)
system.cpu0.mmu.itb.walker.pendingWalks::0      3646500    100.00%    100.00% # Table walker pending requests distribution (Tick)
system.cpu0.mmu.itb.walker.pendingWalks::total      3646500                       # Table walker pending requests distribution (Tick)
system.cpu0.mmu.itb.walker.pageSizes::4KiB        52295     99.60%     99.60% # Table walker page sizes translated (Count)
system.cpu0.mmu.itb.walker.pageSizes::2MiB          212      0.40%    100.00% # Table walker page sizes translated (Count)
system.cpu0.mmu.itb.walker.pageSizes::total        52507                       # Table walker page sizes translated (Count)
system.cpu0.mmu.itb.walker.requestOrigin_Requested::Data            0                       # Table walker requests started/completed, data/inst (Count)
system.cpu0.mmu.itb.walker.requestOrigin_Requested::Inst        52721                       # Table walker requests started/completed, data/inst (Count)
system.cpu0.mmu.itb.walker.requestOrigin_Requested::total        52721                       # Table walker requests started/completed, data/inst (Count)
system.cpu0.mmu.itb.walker.requestOrigin_Completed::Data            0                       # Table walker requests started/completed, data/inst (Count)
system.cpu0.mmu.itb.walker.requestOrigin_Completed::Inst        52507                       # Table walker requests started/completed, data/inst (Count)
system.cpu0.mmu.itb.walker.requestOrigin_Completed::total        52507                       # Table walker requests started/completed, data/inst (Count)
system.cpu0.mmu.itb.walker.requestOrigin::total       105228                       # Table walker requests started/completed, data/inst (Count)
system.cpu0.mmu.itb.walker.power_state.pwrStateResidencyTicks::UNDEFINED 1052276290000                       # Cumulative time (in ticks) in various power states (Tick)
system.cpu0.power_state.numTransitions          35599                       # Number of power state transitions (Count)
system.cpu0.power_state.ticksClkGated::samples        17800                       # Distribution of time spent in the clock gated state
system.cpu0.power_state.ticksClkGated::mean 56352618.564888                       # Distribution of time spent in the clock gated state
system.cpu0.power_state.ticksClkGated::stdev 75249068.132899                       # Distribution of time spent in the clock gated state
system.cpu0.power_state.ticksClkGated::underflows         1113      6.25%      6.25% # Distribution of time spent in the clock gated state
system.cpu0.power_state.ticksClkGated::1000-5e+10        16687     93.75%    100.00% # Distribution of time spent in the clock gated state
system.cpu0.power_state.ticksClkGated::min_value          500                       # Distribution of time spent in the clock gated state
system.cpu0.power_state.ticksClkGated::max_value    162335156                       # Distribution of time spent in the clock gated state
system.cpu0.power_state.ticksClkGated::total        17800                       # Distribution of time spent in the clock gated state
system.cpu0.power_state.pwrStateResidencyTicks::ON  49199679545                       # Cumulative time (in ticks) in various power states (Tick)
system.cpu0.power_state.pwrStateResidencyTicks::CLK_GATED 1003076610455                       # Cumulative time (in ticks) in various power states (Tick)
system.cpu0.thread_0.numInsts                       0                       # Number of Instructions committed (Count)
system.cpu0.thread_0.numOps                         0                       # Number of Ops committed (Count)
system.cpu0.thread_0.numMemRefs                     0                       # Number of Memory References (Count)
system.cpu1.numCycles                      2104315019                       # Number of cpu cycles simulated (Cycle)
system.cpu1.numWorkItemsStarted                     0                       # Number of work items this cpu started (Count)
system.cpu1.numWorkItemsCompleted                   0                       # Number of work items this cpu completed (Count)
system.cpu1.exec_context.thread_0.numInsts     23070289                       # Number of instructions committed (Count)
system.cpu1.exec_context.thread_0.numOps     28693510                       # Number of ops (including micro ops) committed (Count)
system.cpu1.exec_context.thread_0.numIntAluAccesses     27072691                       # Number of integer alu accesses (Count)
system.cpu1.exec_context.thread_0.numFpAluAccesses            0                       # Number of float alu accesses (Count)
system.cpu1.exec_context.thread_0.numVecAluAccesses         1946                       # Number of vector alu accesses (Count)
system.cpu1.exec_context.thread_0.numCallsReturns      1977369                       # Number of times a function call or return occured (Count)
system.cpu1.exec_context.thread_0.numCondCtrlInsts      2885809                       # Number of instructions that are conditional controls (Count)
system.cpu1.exec_context.thread_0.numIntInsts     27072691                       # Number of integer instructions (Count)
system.cpu1.exec_context.thread_0.numFpInsts            0                       # Number of float instructions (Count)
system.cpu1.exec_context.thread_0.numVecInsts         1946                       # Number of vector instructions (Count)
system.cpu1.exec_context.thread_0.numIntRegReads     36277503                       # Number of times the integer registers were read (Count)
system.cpu1.exec_context.thread_0.numIntRegWrites     21560558                       # Number of times the integer registers were written (Count)
system.cpu1.exec_context.thread_0.numFpRegReads            0                       # Number of times the floating registers were read (Count)
system.cpu1.exec_context.thread_0.numFpRegWrites            0                       # Number of times the floating registers were written (Count)
system.cpu1.exec_context.thread_0.numVecRegReads         2111                       # Number of times the vector registers were read (Count)
system.cpu1.exec_context.thread_0.numVecRegWrites         1045                       # Number of times the vector registers were written (Count)
system.cpu1.exec_context.thread_0.numVecPredRegReads            0                       # Number of times the predicate registers were read (Count)
system.cpu1.exec_context.thread_0.numVecPredRegWrites            0                       # Number of times the predicate registers were written (Count)
system.cpu1.exec_context.thread_0.numCCRegReads      4642452                       # Number of times the CC registers were read (Count)
system.cpu1.exec_context.thread_0.numCCRegWrites      4169805                       # Number of times the CC registers were written (Count)
system.cpu1.exec_context.thread_0.numMemRefs      9637601                       # Number of memory refs (Count)
system.cpu1.exec_context.thread_0.numLoadInsts      5058579                       # Number of load instructions (Count)
system.cpu1.exec_context.thread_0.numStoreInsts      4579022                       # Number of store instructions (Count)
system.cpu1.exec_context.thread_0.numIdleCycles 2075628001.521923                       # Number of idle cycles (Cycle)
system.cpu1.exec_context.thread_0.numBusyCycles 28687017.478077                       # Number of busy cycles (Cycle)
system.cpu1.exec_context.thread_0.notIdleFraction     0.013632                       # Percentage of non-idle cycles (Ratio)
system.cpu1.exec_context.thread_0.idleFraction     0.986368                       # Percentage of idle cycles (Ratio)
system.cpu1.exec_context.thread_0.numBranches      4992589                       # Number of branches fetched (Count)
system.cpu1.exec_context.thread_0.statExecutedInstType::No_OpClass           42      0.00%      0.00% # Class of executed instruction. (Count)
system.cpu1.exec_context.thread_0.statExecutedInstType::IntAlu     19011622     66.26%     66.26% # Class of executed instruction. (Count)
system.cpu1.exec_context.thread_0.statExecutedInstType::IntMult        36500      0.13%     66.38% # Class of executed instruction. (Count)
system.cpu1.exec_context.thread_0.statExecutedInstType::IntDiv         7249      0.03%     66.41% # Class of executed instruction. (Count)
system.cpu1.exec_context.thread_0.statExecutedInstType::FloatAdd            0      0.00%     66.41% # Class of executed instruction. (Count)
system.cpu1.exec_context.thread_0.statExecutedInstType::FloatCmp            0      0.00%     66.41% # Class of executed instruction. (Count)
system.cpu1.exec_context.thread_0.statExecutedInstType::FloatCvt            0      0.00%     66.41% # Class of executed instruction. (Count)
system.cpu1.exec_context.thread_0.statExecutedInstType::FloatMult            0      0.00%     66.41% # Class of executed instruction. (Count)
system.cpu1.exec_context.thread_0.statExecutedInstType::FloatMultAcc            0      0.00%     66.41% # Class of executed instruction. (Count)
system.cpu1.exec_context.thread_0.statExecutedInstType::FloatDiv            0      0.00%     66.41% # Class of executed instruction. (Count)
system.cpu1.exec_context.thread_0.statExecutedInstType::FloatMisc            0      0.00%     66.41% # Class of executed instruction. (Count)
system.cpu1.exec_context.thread_0.statExecutedInstType::FloatSqrt            0      0.00%     66.41% # Class of executed instruction. (Count)
system.cpu1.exec_context.thread_0.statExecutedInstType::SimdAdd          137      0.00%     66.41% # Class of executed instruction. (Count)
system.cpu1.exec_context.thread_0.statExecutedInstType::SimdAddAcc            0      0.00%     66.41% # Class of executed instruction. (Count)
system.cpu1.exec_context.thread_0.statExecutedInstType::SimdAlu          258      0.00%     66.41% # Class of executed instruction. (Count)
system.cpu1.exec_context.thread_0.statExecutedInstType::SimdCmp          168      0.00%     66.41% # Class of executed instruction. (Count)
system.cpu1.exec_context.thread_0.statExecutedInstType::SimdCvt            0      0.00%     66.41% # Class of executed instruction. (Count)
system.cpu1.exec_context.thread_0.statExecutedInstType::SimdMisc          169      0.00%     66.41% # Class of executed instruction. (Count)
system.cpu1.exec_context.thread_0.statExecutedInstType::SimdMult            0      0.00%     66.41% # Class of executed instruction. (Count)
system.cpu1.exec_context.thread_0.statExecutedInstType::SimdMultAcc            0      0.00%     66.41% # Class of executed instruction. (Count)
system.cpu1.exec_context.thread_0.statExecutedInstType::SimdShift            0      0.00%     66.41% # Class of executed instruction. (Count)
system.cpu1.exec_context.thread_0.statExecutedInstType::SimdShiftAcc            0      0.00%     66.41% # Class of executed instruction. (Count)
system.cpu1.exec_context.thread_0.statExecutedInstType::SimdDiv            0      0.00%     66.41% # Class of executed instruction. (Count)
system.cpu1.exec_context.thread_0.statExecutedInstType::SimdSqrt            0      0.00%     66.41% # Class of executed instruction. (Count)
system.cpu1.exec_context.thread_0.statExecutedInstType::SimdFloatAdd            0      0.00%     66.41% # Class of executed instruction. (Count)
system.cpu1.exec_context.thread_0.statExecutedInstType::SimdFloatAlu            0      0.00%     66.41% # Class of executed instruction. (Count)
system.cpu1.exec_context.thread_0.statExecutedInstType::SimdFloatCmp            0      0.00%     66.41% # Class of executed instruction. (Count)
system.cpu1.exec_context.thread_0.statExecutedInstType::SimdFloatCvt            0      0.00%     66.41% # Class of executed instruction. (Count)
system.cpu1.exec_context.thread_0.statExecutedInstType::SimdFloatDiv            0      0.00%     66.41% # Class of executed instruction. (Count)
system.cpu1.exec_context.thread_0.statExecutedInstType::SimdFloatMisc            0      0.00%     66.41% # Class of executed instruction. (Count)
system.cpu1.exec_context.thread_0.statExecutedInstType::SimdFloatMult            0      0.00%     66.41% # Class of executed instruction. (Count)
system.cpu1.exec_context.thread_0.statExecutedInstType::SimdFloatMultAcc            0      0.00%     66.41% # Class of executed instruction. (Count)
system.cpu1.exec_context.thread_0.statExecutedInstType::SimdFloatSqrt            0      0.00%     66.41% # Class of executed instruction. (Count)
system.cpu1.exec_context.thread_0.statExecutedInstType::SimdReduceAdd            0      0.00%     66.41% # Class of executed instruction. (Count)
system.cpu1.exec_context.thread_0.statExecutedInstType::SimdReduceAlu            0      0.00%     66.41% # Class of executed instruction. (Count)
system.cpu1.exec_context.thread_0.statExecutedInstType::SimdReduceCmp            0      0.00%     66.41% # Class of executed instruction. (Count)
system.cpu1.exec_context.thread_0.statExecutedInstType::SimdFloatReduceAdd            0      0.00%     66.41% # Class of executed instruction. (Count)
system.cpu1.exec_context.thread_0.statExecutedInstType::SimdFloatReduceCmp            0      0.00%     66.41% # Class of executed instruction. (Count)
system.cpu1.exec_context.thread_0.statExecutedInstType::SimdAes            0      0.00%     66.41% # Class of executed instruction. (Count)
system.cpu1.exec_context.thread_0.statExecutedInstType::SimdAesMix            0      0.00%     66.41% # Class of executed instruction. (Count)
system.cpu1.exec_context.thread_0.statExecutedInstType::SimdSha1Hash            0      0.00%     66.41% # Class of executed instruction. (Count)
system.cpu1.exec_context.thread_0.statExecutedInstType::SimdSha1Hash2            0      0.00%     66.41% # Class of executed instruction. (Count)
system.cpu1.exec_context.thread_0.statExecutedInstType::SimdSha256Hash            0      0.00%     66.41% # Class of executed instruction. (Count)
system.cpu1.exec_context.thread_0.statExecutedInstType::SimdSha256Hash2            0      0.00%     66.41% # Class of executed instruction. (Count)
system.cpu1.exec_context.thread_0.statExecutedInstType::SimdShaSigma2            0      0.00%     66.41% # Class of executed instruction. (Count)
system.cpu1.exec_context.thread_0.statExecutedInstType::SimdShaSigma3            0      0.00%     66.41% # Class of executed instruction. (Count)
system.cpu1.exec_context.thread_0.statExecutedInstType::SimdPredAlu            0      0.00%     66.41% # Class of executed instruction. (Count)
system.cpu1.exec_context.thread_0.statExecutedInstType::MemRead      5058579     17.63%     84.04% # Class of executed instruction. (Count)
system.cpu1.exec_context.thread_0.statExecutedInstType::MemWrite      4579022     15.96%    100.00% # Class of executed instruction. (Count)
system.cpu1.exec_context.thread_0.statExecutedInstType::FloatMemRead            0      0.00%    100.00% # Class of executed instruction. (Count)
system.cpu1.exec_context.thread_0.statExecutedInstType::FloatMemWrite            0      0.00%    100.00% # Class of executed instruction. (Count)
system.cpu1.exec_context.thread_0.statExecutedInstType::IprAccess            0      0.00%    100.00% # Class of executed instruction. (Count)
system.cpu1.exec_context.thread_0.statExecutedInstType::InstPrefetch            0      0.00%    100.00% # Class of executed instruction. (Count)
system.cpu1.exec_context.thread_0.statExecutedInstType::total     28693746                       # Class of executed instruction. (Count)
system.cpu1.mmu.dtb.instHits                        0                       # ITB inst hits (Count)
system.cpu1.mmu.dtb.instMisses                      0                       # ITB inst misses (Count)
system.cpu1.mmu.dtb.readHits                  5059448                       # DTB read hits (Count)
system.cpu1.mmu.dtb.readMisses                   1567                       # DTB read misses (Count)
system.cpu1.mmu.dtb.writeHits                 4578208                       # DTB write hits (Count)
system.cpu1.mmu.dtb.writeMisses                  1073                       # DTB write misses (Count)
system.cpu1.mmu.dtb.inserts                      2527                       # Number of times an entry is inserted into the TLB (Count)
system.cpu1.mmu.dtb.flushTlb                        3                       # Number of times complete TLB was flushed (Count)
system.cpu1.mmu.dtb.flushTlbMva                  1239                       # Number of times TLB was flushed by MVA (Count)
system.cpu1.mmu.dtb.flushTlbMvaAsid              1678                       # Number of times TLB was flushed by MVA & ASID (Count)
system.cpu1.mmu.dtb.flushTlbAsid                   13                       # Number of times TLB was flushed by ASID (Count)
system.cpu1.mmu.dtb.flushedEntries                125                       # Number of entries that have been flushed from TLB (Count)
system.cpu1.mmu.dtb.alignFaults                     0                       # Number of TLB faults due to alignment restrictions (Count)
system.cpu1.mmu.dtb.prefetchFaults                501                       # Number of TLB faults due to prefetch (Count)
system.cpu1.mmu.dtb.domainFaults                    0                       # Number of TLB faults due to domain restrictions (Count)
system.cpu1.mmu.dtb.permsFaults                    42                       # Number of TLB faults due to permissions restrictions (Count)
system.cpu1.mmu.dtb.readAccesses              5061015                       # DTB read accesses (Count)
system.cpu1.mmu.dtb.writeAccesses             4579281                       # DTB write accesses (Count)
system.cpu1.mmu.dtb.instAccesses                    0                       # ITB inst accesses (Count)
system.cpu1.mmu.dtb.hits                      9637656                       # Total TLB (inst and data) hits (Count)
system.cpu1.mmu.dtb.misses                       2640                       # Total TLB (inst and data) misses (Count)
system.cpu1.mmu.dtb.accesses                  9640296                       # Total TLB (inst and data) accesses (Count)
system.cpu1.mmu.dtb.stage2_mmu.stage2_tlb.instHits            0                       # ITB inst hits (Count)
system.cpu1.mmu.dtb.stage2_mmu.stage2_tlb.instMisses            0                       # ITB inst misses (Count)
system.cpu1.mmu.dtb.stage2_mmu.stage2_tlb.readHits            0                       # DTB read hits (Count)
system.cpu1.mmu.dtb.stage2_mmu.stage2_tlb.readMisses            0                       # DTB read misses (Count)
system.cpu1.mmu.dtb.stage2_mmu.stage2_tlb.writeHits            0                       # DTB write hits (Count)
system.cpu1.mmu.dtb.stage2_mmu.stage2_tlb.writeMisses            0                       # DTB write misses (Count)
system.cpu1.mmu.dtb.stage2_mmu.stage2_tlb.inserts            0                       # Number of times an entry is inserted into the TLB (Count)
system.cpu1.mmu.dtb.stage2_mmu.stage2_tlb.flushTlb            0                       # Number of times complete TLB was flushed (Count)
system.cpu1.mmu.dtb.stage2_mmu.stage2_tlb.flushTlbMva            0                       # Number of times TLB was flushed by MVA (Count)
system.cpu1.mmu.dtb.stage2_mmu.stage2_tlb.flushTlbMvaAsid            0                       # Number of times TLB was flushed by MVA & ASID (Count)
system.cpu1.mmu.dtb.stage2_mmu.stage2_tlb.flushTlbAsid            0                       # Number of times TLB was flushed by ASID (Count)
system.cpu1.mmu.dtb.stage2_mmu.stage2_tlb.flushedEntries            0                       # Number of entries that have been flushed from TLB (Count)
system.cpu1.mmu.dtb.stage2_mmu.stage2_tlb.alignFaults            0                       # Number of TLB faults due to alignment restrictions (Count)
system.cpu1.mmu.dtb.stage2_mmu.stage2_tlb.prefetchFaults            0                       # Number of TLB faults due to prefetch (Count)
system.cpu1.mmu.dtb.stage2_mmu.stage2_tlb.domainFaults            0                       # Number of TLB faults due to domain restrictions (Count)
system.cpu1.mmu.dtb.stage2_mmu.stage2_tlb.permsFaults            0                       # Number of TLB faults due to permissions restrictions (Count)
system.cpu1.mmu.dtb.stage2_mmu.stage2_tlb.readAccesses            0                       # DTB read accesses (Count)
system.cpu1.mmu.dtb.stage2_mmu.stage2_tlb.writeAccesses            0                       # DTB write accesses (Count)
system.cpu1.mmu.dtb.stage2_mmu.stage2_tlb.instAccesses            0                       # ITB inst accesses (Count)
system.cpu1.mmu.dtb.stage2_mmu.stage2_tlb.hits            0                       # Total TLB (inst and data) hits (Count)
system.cpu1.mmu.dtb.stage2_mmu.stage2_tlb.misses            0                       # Total TLB (inst and data) misses (Count)
system.cpu1.mmu.dtb.stage2_mmu.stage2_tlb.accesses            0                       # Total TLB (inst and data) accesses (Count)
system.cpu1.mmu.dtb.stage2_mmu.stage2_tlb.walker.walks            0                       # Table walker walks requested (Count)
system.cpu1.mmu.dtb.stage2_mmu.stage2_tlb.walker.requestOrigin_Requested::Data            0                       # Table walker requests started/completed, data/inst (Count)
system.cpu1.mmu.dtb.stage2_mmu.stage2_tlb.walker.requestOrigin_Requested::Inst            0                       # Table walker requests started/completed, data/inst (Count)
system.cpu1.mmu.dtb.stage2_mmu.stage2_tlb.walker.requestOrigin_Requested::total            0                       # Table walker requests started/completed, data/inst (Count)
system.cpu1.mmu.dtb.stage2_mmu.stage2_tlb.walker.requestOrigin_Completed::Data            0                       # Table walker requests started/completed, data/inst (Count)
system.cpu1.mmu.dtb.stage2_mmu.stage2_tlb.walker.requestOrigin_Completed::Inst            0                       # Table walker requests started/completed, data/inst (Count)
system.cpu1.mmu.dtb.stage2_mmu.stage2_tlb.walker.requestOrigin_Completed::total            0                       # Table walker requests started/completed, data/inst (Count)
system.cpu1.mmu.dtb.stage2_mmu.stage2_tlb.walker.requestOrigin::total            0                       # Table walker requests started/completed, data/inst (Count)
system.cpu1.mmu.dtb.stage2_mmu.stage2_tlb.walker.power_state.pwrStateResidencyTicks::UNDEFINED 1052276290000                       # Cumulative time (in ticks) in various power states (Tick)
system.cpu1.mmu.dtb.walker.walks                 2640                       # Table walker walks requested (Count)
system.cpu1.mmu.dtb.walker.walksLongDescriptor         2640                       # Table walker walks initiated with long descriptors (Count)
system.cpu1.mmu.dtb.walker.walkWaitTime::samples         2640                       # Table walker wait (enqueue to first request) latency (Tick)
system.cpu1.mmu.dtb.walker.walkWaitTime::0         2640    100.00%    100.00% # Table walker wait (enqueue to first request) latency (Tick)
system.cpu1.mmu.dtb.walker.walkWaitTime::total         2640                       # Table walker wait (enqueue to first request) latency (Tick)
system.cpu1.mmu.dtb.walker.pendingWalks::samples    714598468                       # Table walker pending requests distribution (Tick)
system.cpu1.mmu.dtb.walker.pendingWalks::0    714598468    100.00%    100.00% # Table walker pending requests distribution (Tick)
system.cpu1.mmu.dtb.walker.pendingWalks::total    714598468                       # Table walker pending requests distribution (Tick)
system.cpu1.mmu.dtb.walker.pageSizes::4KiB         2454     97.11%     97.11% # Table walker page sizes translated (Count)
system.cpu1.mmu.dtb.walker.pageSizes::2MiB           73      2.89%    100.00% # Table walker page sizes translated (Count)
system.cpu1.mmu.dtb.walker.pageSizes::total         2527                       # Table walker page sizes translated (Count)
system.cpu1.mmu.dtb.walker.requestOrigin_Requested::Data         2640                       # Table walker requests started/completed, data/inst (Count)
system.cpu1.mmu.dtb.walker.requestOrigin_Requested::Inst            0                       # Table walker requests started/completed, data/inst (Count)
system.cpu1.mmu.dtb.walker.requestOrigin_Requested::total         2640                       # Table walker requests started/completed, data/inst (Count)
system.cpu1.mmu.dtb.walker.requestOrigin_Completed::Data         2527                       # Table walker requests started/completed, data/inst (Count)
system.cpu1.mmu.dtb.walker.requestOrigin_Completed::Inst            0                       # Table walker requests started/completed, data/inst (Count)
system.cpu1.mmu.dtb.walker.requestOrigin_Completed::total         2527                       # Table walker requests started/completed, data/inst (Count)
system.cpu1.mmu.dtb.walker.requestOrigin::total         5167                       # Table walker requests started/completed, data/inst (Count)
system.cpu1.mmu.dtb.walker.power_state.pwrStateResidencyTicks::UNDEFINED 1052276290000                       # Cumulative time (in ticks) in various power states (Tick)
system.cpu1.mmu.itb.instHits                 23014683                       # ITB inst hits (Count)
system.cpu1.mmu.itb.instMisses                  55762                       # ITB inst misses (Count)
system.cpu1.mmu.itb.readHits                        0                       # DTB read hits (Count)
system.cpu1.mmu.itb.readMisses                      0                       # DTB read misses (Count)
system.cpu1.mmu.itb.writeHits                       0                       # DTB write hits (Count)
system.cpu1.mmu.itb.writeMisses                     0                       # DTB write misses (Count)
system.cpu1.mmu.itb.inserts                     55712                       # Number of times an entry is inserted into the TLB (Count)
system.cpu1.mmu.itb.flushTlb                        3                       # Number of times complete TLB was flushed (Count)
system.cpu1.mmu.itb.flushTlbMva                  1239                       # Number of times TLB was flushed by MVA (Count)
system.cpu1.mmu.itb.flushTlbMvaAsid              1678                       # Number of times TLB was flushed by MVA & ASID (Count)
system.cpu1.mmu.itb.flushTlbAsid                   13                       # Number of times TLB was flushed by ASID (Count)
system.cpu1.mmu.itb.flushedEntries                 67                       # Number of entries that have been flushed from TLB (Count)
system.cpu1.mmu.itb.alignFaults                     0                       # Number of TLB faults due to alignment restrictions (Count)
system.cpu1.mmu.itb.prefetchFaults                  0                       # Number of TLB faults due to prefetch (Count)
system.cpu1.mmu.itb.domainFaults                    0                       # Number of TLB faults due to domain restrictions (Count)
system.cpu1.mmu.itb.permsFaults                     0                       # Number of TLB faults due to permissions restrictions (Count)
system.cpu1.mmu.itb.readAccesses                    0                       # DTB read accesses (Count)
system.cpu1.mmu.itb.writeAccesses                   0                       # DTB write accesses (Count)
system.cpu1.mmu.itb.instAccesses             23070445                       # ITB inst accesses (Count)
system.cpu1.mmu.itb.hits                     23014683                       # Total TLB (inst and data) hits (Count)
system.cpu1.mmu.itb.misses                      55762                       # Total TLB (inst and data) misses (Count)
system.cpu1.mmu.itb.accesses                 23070445                       # Total TLB (inst and data) accesses (Count)
system.cpu1.mmu.itb.stage2_mmu.stage2_tlb.instHits            0                       # ITB inst hits (Count)
system.cpu1.mmu.itb.stage2_mmu.stage2_tlb.instMisses            0                       # ITB inst misses (Count)
system.cpu1.mmu.itb.stage2_mmu.stage2_tlb.readHits            0                       # DTB read hits (Count)
system.cpu1.mmu.itb.stage2_mmu.stage2_tlb.readMisses            0                       # DTB read misses (Count)
system.cpu1.mmu.itb.stage2_mmu.stage2_tlb.writeHits            0                       # DTB write hits (Count)
system.cpu1.mmu.itb.stage2_mmu.stage2_tlb.writeMisses            0                       # DTB write misses (Count)
system.cpu1.mmu.itb.stage2_mmu.stage2_tlb.inserts            0                       # Number of times an entry is inserted into the TLB (Count)
system.cpu1.mmu.itb.stage2_mmu.stage2_tlb.flushTlb            0                       # Number of times complete TLB was flushed (Count)
system.cpu1.mmu.itb.stage2_mmu.stage2_tlb.flushTlbMva            0                       # Number of times TLB was flushed by MVA (Count)
system.cpu1.mmu.itb.stage2_mmu.stage2_tlb.flushTlbMvaAsid            0                       # Number of times TLB was flushed by MVA & ASID (Count)
system.cpu1.mmu.itb.stage2_mmu.stage2_tlb.flushTlbAsid            0                       # Number of times TLB was flushed by ASID (Count)
system.cpu1.mmu.itb.stage2_mmu.stage2_tlb.flushedEntries            0                       # Number of entries that have been flushed from TLB (Count)
system.cpu1.mmu.itb.stage2_mmu.stage2_tlb.alignFaults            0                       # Number of TLB faults due to alignment restrictions (Count)
system.cpu1.mmu.itb.stage2_mmu.stage2_tlb.prefetchFaults            0                       # Number of TLB faults due to prefetch (Count)
system.cpu1.mmu.itb.stage2_mmu.stage2_tlb.domainFaults            0                       # Number of TLB faults due to domain restrictions (Count)
system.cpu1.mmu.itb.stage2_mmu.stage2_tlb.permsFaults            0                       # Number of TLB faults due to permissions restrictions (Count)
system.cpu1.mmu.itb.stage2_mmu.stage2_tlb.readAccesses            0                       # DTB read accesses (Count)
system.cpu1.mmu.itb.stage2_mmu.stage2_tlb.writeAccesses            0                       # DTB write accesses (Count)
system.cpu1.mmu.itb.stage2_mmu.stage2_tlb.instAccesses            0                       # ITB inst accesses (Count)
system.cpu1.mmu.itb.stage2_mmu.stage2_tlb.hits            0                       # Total TLB (inst and data) hits (Count)
system.cpu1.mmu.itb.stage2_mmu.stage2_tlb.misses            0                       # Total TLB (inst and data) misses (Count)
system.cpu1.mmu.itb.stage2_mmu.stage2_tlb.accesses            0                       # Total TLB (inst and data) accesses (Count)
system.cpu1.mmu.itb.stage2_mmu.stage2_tlb.walker.walks            0                       # Table walker walks requested (Count)
system.cpu1.mmu.itb.stage2_mmu.stage2_tlb.walker.requestOrigin_Requested::Data            0                       # Table walker requests started/completed, data/inst (Count)
system.cpu1.mmu.itb.stage2_mmu.stage2_tlb.walker.requestOrigin_Requested::Inst            0                       # Table walker requests started/completed, data/inst (Count)
system.cpu1.mmu.itb.stage2_mmu.stage2_tlb.walker.requestOrigin_Requested::total            0                       # Table walker requests started/completed, data/inst (Count)
system.cpu1.mmu.itb.stage2_mmu.stage2_tlb.walker.requestOrigin_Completed::Data            0                       # Table walker requests started/completed, data/inst (Count)
system.cpu1.mmu.itb.stage2_mmu.stage2_tlb.walker.requestOrigin_Completed::Inst            0                       # Table walker requests started/completed, data/inst (Count)
system.cpu1.mmu.itb.stage2_mmu.stage2_tlb.walker.requestOrigin_Completed::total            0                       # Table walker requests started/completed, data/inst (Count)
system.cpu1.mmu.itb.stage2_mmu.stage2_tlb.walker.requestOrigin::total            0                       # Table walker requests started/completed, data/inst (Count)
system.cpu1.mmu.itb.stage2_mmu.stage2_tlb.walker.power_state.pwrStateResidencyTicks::UNDEFINED 1052276290000                       # Cumulative time (in ticks) in various power states (Tick)
system.cpu1.mmu.itb.walker.walks                55762                       # Table walker walks requested (Count)
system.cpu1.mmu.itb.walker.walksLongDescriptor        55762                       # Table walker walks initiated with long descriptors (Count)
system.cpu1.mmu.itb.walker.walkWaitTime::samples        55762                       # Table walker wait (enqueue to first request) latency (Tick)
system.cpu1.mmu.itb.walker.walkWaitTime::0        55762    100.00%    100.00% # Table walker wait (enqueue to first request) latency (Tick)
system.cpu1.mmu.itb.walker.walkWaitTime::total        55762                       # Table walker wait (enqueue to first request) latency (Tick)
system.cpu1.mmu.itb.walker.pendingWalks::samples    714595968                       # Table walker pending requests distribution (Tick)
system.cpu1.mmu.itb.walker.pendingWalks::0    714595968    100.00%    100.00% # Table walker pending requests distribution (Tick)
system.cpu1.mmu.itb.walker.pendingWalks::total    714595968                       # Table walker pending requests distribution (Tick)
system.cpu1.mmu.itb.walker.pageSizes::4KiB        55375     99.40%     99.40% # Table walker page sizes translated (Count)
system.cpu1.mmu.itb.walker.pageSizes::2MiB          337      0.60%    100.00% # Table walker page sizes translated (Count)
system.cpu1.mmu.itb.walker.pageSizes::total        55712                       # Table walker page sizes translated (Count)
system.cpu1.mmu.itb.walker.requestOrigin_Requested::Data            0                       # Table walker requests started/completed, data/inst (Count)
system.cpu1.mmu.itb.walker.requestOrigin_Requested::Inst        55762                       # Table walker requests started/completed, data/inst (Count)
system.cpu1.mmu.itb.walker.requestOrigin_Requested::total        55762                       # Table walker requests started/completed, data/inst (Count)
system.cpu1.mmu.itb.walker.requestOrigin_Completed::Data            0                       # Table walker requests started/completed, data/inst (Count)
system.cpu1.mmu.itb.walker.requestOrigin_Completed::Inst        55712                       # Table walker requests started/completed, data/inst (Count)
system.cpu1.mmu.itb.walker.requestOrigin_Completed::total        55712                       # Table walker requests started/completed, data/inst (Count)
system.cpu1.mmu.itb.walker.requestOrigin::total       111474                       # Table walker requests started/completed, data/inst (Count)
system.cpu1.mmu.itb.walker.power_state.pwrStateResidencyTicks::UNDEFINED 1052276290000                       # Cumulative time (in ticks) in various power states (Tick)
system.cpu1.power_state.numTransitions          15015                       # Number of power state transitions (Count)
system.cpu1.power_state.ticksClkGated::samples         7508                       # Distribution of time spent in the clock gated state
system.cpu1.power_state.ticksClkGated::mean 138243362.012387                       # Distribution of time spent in the clock gated state
system.cpu1.power_state.ticksClkGated::stdev 786360469.090873                       # Distribution of time spent in the clock gated state
system.cpu1.power_state.ticksClkGated::underflows          993     13.23%     13.23% # Distribution of time spent in the clock gated state
system.cpu1.power_state.ticksClkGated::1000-5e+10         6514     86.76%     99.99% # Distribution of time spent in the clock gated state
system.cpu1.power_state.ticksClkGated::5e+10-1e+11            1      0.01%    100.00% # Distribution of time spent in the clock gated state
system.cpu1.power_state.ticksClkGated::min_value          501                       # Distribution of time spent in the clock gated state
system.cpu1.power_state.ticksClkGated::max_value  67787346000                       # Distribution of time spent in the clock gated state
system.cpu1.power_state.ticksClkGated::total         7508                       # Distribution of time spent in the clock gated state
system.cpu1.power_state.pwrStateResidencyTicks::ON  14345128011                       # Cumulative time (in ticks) in various power states (Tick)
system.cpu1.power_state.pwrStateResidencyTicks::CLK_GATED 1037931161989                       # Cumulative time (in ticks) in various power states (Tick)
system.cpu1.thread_0.numInsts                       0                       # Number of Instructions committed (Count)
system.cpu1.thread_0.numOps                         0                       # Number of Ops committed (Count)
system.cpu1.thread_0.numMemRefs                     0                       # Number of Memory References (Count)
system.cpu2.numCycles                      2104563762                       # Number of cpu cycles simulated (Cycle)
system.cpu2.numWorkItemsStarted                     0                       # Number of work items this cpu started (Count)
system.cpu2.numWorkItemsCompleted                   0                       # Number of work items this cpu completed (Count)
system.cpu2.exec_context.thread_0.numInsts    113611153                       # Number of instructions committed (Count)
system.cpu2.exec_context.thread_0.numOps    132384548                       # Number of ops (including micro ops) committed (Count)
system.cpu2.exec_context.thread_0.numIntAluAccesses    121862820                       # Number of integer alu accesses (Count)
system.cpu2.exec_context.thread_0.numFpAluAccesses            0                       # Number of float alu accesses (Count)
system.cpu2.exec_context.thread_0.numVecAluAccesses       890726                       # Number of vector alu accesses (Count)
system.cpu2.exec_context.thread_0.numCallsReturns      5816959                       # Number of times a function call or return occured (Count)
system.cpu2.exec_context.thread_0.numCondCtrlInsts     14303174                       # Number of instructions that are conditional controls (Count)
system.cpu2.exec_context.thread_0.numIntInsts    121862820                       # Number of integer instructions (Count)
system.cpu2.exec_context.thread_0.numFpInsts            0                       # Number of float instructions (Count)
system.cpu2.exec_context.thread_0.numVecInsts       890726                       # Number of vector instructions (Count)
system.cpu2.exec_context.thread_0.numIntRegReads    172220128                       # Number of times the integer registers were read (Count)
system.cpu2.exec_context.thread_0.numIntRegWrites    102578148                       # Number of times the integer registers were written (Count)
system.cpu2.exec_context.thread_0.numFpRegReads            0                       # Number of times the floating registers were read (Count)
system.cpu2.exec_context.thread_0.numFpRegWrites            0                       # Number of times the floating registers were written (Count)
system.cpu2.exec_context.thread_0.numVecRegReads      1297433                       # Number of times the vector registers were read (Count)
system.cpu2.exec_context.thread_0.numVecRegWrites       838929                       # Number of times the vector registers were written (Count)
system.cpu2.exec_context.thread_0.numVecPredRegReads            0                       # Number of times the predicate registers were read (Count)
system.cpu2.exec_context.thread_0.numVecPredRegWrites            0                       # Number of times the predicate registers were written (Count)
system.cpu2.exec_context.thread_0.numCCRegReads     33308844                       # Number of times the CC registers were read (Count)
system.cpu2.exec_context.thread_0.numCCRegWrites     32448558                       # Number of times the CC registers were written (Count)
system.cpu2.exec_context.thread_0.numMemRefs     39355261                       # Number of memory refs (Count)
system.cpu2.exec_context.thread_0.numLoadInsts     25060719                       # Number of load instructions (Count)
system.cpu2.exec_context.thread_0.numStoreInsts     14294542                       # Number of store instructions (Count)
system.cpu2.exec_context.thread_0.numIdleCycles 1972179236.118661                       # Number of idle cycles (Cycle)
system.cpu2.exec_context.thread_0.numBusyCycles 132384525.881339                       # Number of busy cycles (Cycle)
system.cpu2.exec_context.thread_0.notIdleFraction     0.062904                       # Percentage of non-idle cycles (Ratio)
system.cpu2.exec_context.thread_0.idleFraction     0.937096                       # Percentage of idle cycles (Ratio)
system.cpu2.exec_context.thread_0.numBranches     20899208                       # Number of branches fetched (Count)
system.cpu2.exec_context.thread_0.statExecutedInstType::No_OpClass        71081      0.05%      0.05% # Class of executed instruction. (Count)
system.cpu2.exec_context.thread_0.statExecutedInstType::IntAlu     92133060     69.59%     69.65% # Class of executed instruction. (Count)
system.cpu2.exec_context.thread_0.statExecutedInstType::IntMult       164134      0.12%     69.77% # Class of executed instruction. (Count)
system.cpu2.exec_context.thread_0.statExecutedInstType::IntDiv         9881      0.01%     69.78% # Class of executed instruction. (Count)
system.cpu2.exec_context.thread_0.statExecutedInstType::FloatAdd            5      0.00%     69.78% # Class of executed instruction. (Count)
system.cpu2.exec_context.thread_0.statExecutedInstType::FloatCmp            0      0.00%     69.78% # Class of executed instruction. (Count)
system.cpu2.exec_context.thread_0.statExecutedInstType::FloatCvt            5      0.00%     69.78% # Class of executed instruction. (Count)
system.cpu2.exec_context.thread_0.statExecutedInstType::FloatMult            1      0.00%     69.78% # Class of executed instruction. (Count)
system.cpu2.exec_context.thread_0.statExecutedInstType::FloatMultAcc            0      0.00%     69.78% # Class of executed instruction. (Count)
system.cpu2.exec_context.thread_0.statExecutedInstType::FloatDiv            2      0.00%     69.78% # Class of executed instruction. (Count)
system.cpu2.exec_context.thread_0.statExecutedInstType::FloatMisc            4      0.00%     69.78% # Class of executed instruction. (Count)
system.cpu2.exec_context.thread_0.statExecutedInstType::FloatSqrt            0      0.00%     69.78% # Class of executed instruction. (Count)
system.cpu2.exec_context.thread_0.statExecutedInstType::SimdAdd       164399      0.12%     69.90% # Class of executed instruction. (Count)
system.cpu2.exec_context.thread_0.statExecutedInstType::SimdAddAcc            0      0.00%     69.90% # Class of executed instruction. (Count)
system.cpu2.exec_context.thread_0.statExecutedInstType::SimdAlu       171592      0.13%     70.03% # Class of executed instruction. (Count)
system.cpu2.exec_context.thread_0.statExecutedInstType::SimdCmp       147152      0.11%     70.14% # Class of executed instruction. (Count)
system.cpu2.exec_context.thread_0.statExecutedInstType::SimdCvt            0      0.00%     70.14% # Class of executed instruction. (Count)
system.cpu2.exec_context.thread_0.statExecutedInstType::SimdMisc       170373      0.13%     70.27% # Class of executed instruction. (Count)
system.cpu2.exec_context.thread_0.statExecutedInstType::SimdMult            0      0.00%     70.27% # Class of executed instruction. (Count)
system.cpu2.exec_context.thread_0.statExecutedInstType::SimdMultAcc            0      0.00%     70.27% # Class of executed instruction. (Count)
system.cpu2.exec_context.thread_0.statExecutedInstType::SimdShift            0      0.00%     70.27% # Class of executed instruction. (Count)
system.cpu2.exec_context.thread_0.statExecutedInstType::SimdShiftAcc            0      0.00%     70.27% # Class of executed instruction. (Count)
system.cpu2.exec_context.thread_0.statExecutedInstType::SimdDiv            0      0.00%     70.27% # Class of executed instruction. (Count)
system.cpu2.exec_context.thread_0.statExecutedInstType::SimdSqrt            0      0.00%     70.27% # Class of executed instruction. (Count)
system.cpu2.exec_context.thread_0.statExecutedInstType::SimdFloatAdd            0      0.00%     70.27% # Class of executed instruction. (Count)
system.cpu2.exec_context.thread_0.statExecutedInstType::SimdFloatAlu            0      0.00%     70.27% # Class of executed instruction. (Count)
system.cpu2.exec_context.thread_0.statExecutedInstType::SimdFloatCmp            0      0.00%     70.27% # Class of executed instruction. (Count)
system.cpu2.exec_context.thread_0.statExecutedInstType::SimdFloatCvt            0      0.00%     70.27% # Class of executed instruction. (Count)
system.cpu2.exec_context.thread_0.statExecutedInstType::SimdFloatDiv            0      0.00%     70.27% # Class of executed instruction. (Count)
system.cpu2.exec_context.thread_0.statExecutedInstType::SimdFloatMisc            0      0.00%     70.27% # Class of executed instruction. (Count)
system.cpu2.exec_context.thread_0.statExecutedInstType::SimdFloatMult            0      0.00%     70.27% # Class of executed instruction. (Count)
system.cpu2.exec_context.thread_0.statExecutedInstType::SimdFloatMultAcc            0      0.00%     70.27% # Class of executed instruction. (Count)
system.cpu2.exec_context.thread_0.statExecutedInstType::SimdFloatSqrt            0      0.00%     70.27% # Class of executed instruction. (Count)
system.cpu2.exec_context.thread_0.statExecutedInstType::SimdReduceAdd            0      0.00%     70.27% # Class of executed instruction. (Count)
system.cpu2.exec_context.thread_0.statExecutedInstType::SimdReduceAlu            0      0.00%     70.27% # Class of executed instruction. (Count)
system.cpu2.exec_context.thread_0.statExecutedInstType::SimdReduceCmp            0      0.00%     70.27% # Class of executed instruction. (Count)
system.cpu2.exec_context.thread_0.statExecutedInstType::SimdFloatReduceAdd            0      0.00%     70.27% # Class of executed instruction. (Count)
system.cpu2.exec_context.thread_0.statExecutedInstType::SimdFloatReduceCmp            0      0.00%     70.27% # Class of executed instruction. (Count)
system.cpu2.exec_context.thread_0.statExecutedInstType::SimdAes            0      0.00%     70.27% # Class of executed instruction. (Count)
system.cpu2.exec_context.thread_0.statExecutedInstType::SimdAesMix            0      0.00%     70.27% # Class of executed instruction. (Count)
system.cpu2.exec_context.thread_0.statExecutedInstType::SimdSha1Hash            0      0.00%     70.27% # Class of executed instruction. (Count)
system.cpu2.exec_context.thread_0.statExecutedInstType::SimdSha1Hash2            0      0.00%     70.27% # Class of executed instruction. (Count)
system.cpu2.exec_context.thread_0.statExecutedInstType::SimdSha256Hash            0      0.00%     70.27% # Class of executed instruction. (Count)
system.cpu2.exec_context.thread_0.statExecutedInstType::SimdSha256Hash2            0      0.00%     70.27% # Class of executed instruction. (Count)
system.cpu2.exec_context.thread_0.statExecutedInstType::SimdShaSigma2            0      0.00%     70.27% # Class of executed instruction. (Count)
system.cpu2.exec_context.thread_0.statExecutedInstType::SimdShaSigma3            0      0.00%     70.27% # Class of executed instruction. (Count)
system.cpu2.exec_context.thread_0.statExecutedInstType::SimdPredAlu            0      0.00%     70.27% # Class of executed instruction. (Count)
system.cpu2.exec_context.thread_0.statExecutedInstType::MemRead     25060719     18.93%     89.20% # Class of executed instruction. (Count)
system.cpu2.exec_context.thread_0.statExecutedInstType::MemWrite     14294542     10.80%    100.00% # Class of executed instruction. (Count)
system.cpu2.exec_context.thread_0.statExecutedInstType::FloatMemRead            0      0.00%    100.00% # Class of executed instruction. (Count)
system.cpu2.exec_context.thread_0.statExecutedInstType::FloatMemWrite            0      0.00%    100.00% # Class of executed instruction. (Count)
system.cpu2.exec_context.thread_0.statExecutedInstType::IprAccess            0      0.00%    100.00% # Class of executed instruction. (Count)
system.cpu2.exec_context.thread_0.statExecutedInstType::InstPrefetch            0      0.00%    100.00% # Class of executed instruction. (Count)
system.cpu2.exec_context.thread_0.statExecutedInstType::total    132386950                       # Class of executed instruction. (Count)
system.cpu2.mmu.dtb.instHits                        0                       # ITB inst hits (Count)
system.cpu2.mmu.dtb.instMisses                      0                       # ITB inst misses (Count)
[...]
system.membus.snoopFanout::min_value                0                       # Request fanout histogram
system.membus.snoopFanout::max_value                0                       # Request fanout histogram
system.membus.snoopFanout::total            324152803                       # Request fanout histogram
system.membus.badaddr_responder.power_state.pwrStateResidencyTicks::UNDEFINED 1052276290000                       # Cumulative time (in ticks) in various power states (Tick)
system.membus.power_state.pwrStateResidencyTicks::UNDEFINED 1052276290000                       # Cumulative time (in ticks) in various power states (Tick)
system.membus.snoop_filter.totRequests          97100                       # Total number of requests made to the snoop filter. (Count)
system.membus.snoop_filter.hitSingleRequests            0                       # Number of requests hitting in the snoop filter with a single holder of the requested data. (Count)
system.membus.snoop_filter.hitMultiRequests            0                       # Number of requests hitting in the snoop filter with multiple (>1) holders of the requested data. (Count)
system.membus.snoop_filter.totSnoops                0                       # Total number of snoops made to the snoop filter. (Count)
system.membus.snoop_filter.hitSingleSnoops            0                       # Number of snoops hitting in the snoop filter with a single holder of the requested data. (Count)
system.membus.snoop_filter.hitMultiSnoops            0                       # Number of snoops hitting in the snoop filter with multiple (>1) holders of the requested data. (Count)
system.pci_ide.disks.IdeDisk.dmaReadFullPages          328                       # Number of full page size DMA reads (not PRD). (Count)
system.pci_ide.disks.IdeDisk.dmaReadBytes      1343488                       # Number of bytes transfered via DMA reads (not PRD). (Byte)
system.pci_ide.disks.IdeDisk.dmaReadTxs           328                       # Number of DMA read transactions (not PRD). (Count)
system.pci_ide.disks.IdeDisk.dmaWriteFullPages         3317                       # Number of full page size DMA writes. (Count)
system.pci_ide.disks.IdeDisk.dmaWriteBytes     13592576                       # Number of bytes transfered via DMA writes. (Byte)
system.pci_ide.disks.IdeDisk.dmaWriteTxs         3323                       # Number of DMA write transactions. (Count)
system.pci_ide.power_state.pwrStateResidencyTicks::UNDEFINED 1052276290000                       # Cumulative time (in ticks) in various power states (Tick)
system.realview.bootmem.bytesRead::cpu0.inst          108                       # Number of bytes read from this memory (Byte)
system.realview.bootmem.bytesRead::cpu0.data           28                       # Number of bytes read from this memory (Byte)
system.realview.bootmem.bytesRead::cpu1.inst           88                       # Number of bytes read from this memory (Byte)
system.realview.bootmem.bytesRead::cpu1.data            8                       # Number of bytes read from this memory (Byte)
system.realview.bootmem.bytesRead::cpu2.inst           88                       # Number of bytes read from this memory (Byte)
system.realview.bootmem.bytesRead::cpu2.data            8                       # Number of bytes read from this memory (Byte)
system.realview.bootmem.bytesRead::cpu3.inst           88                       # Number of bytes read from this memory (Byte)
system.realview.bootmem.bytesRead::cpu3.data            8                       # Number of bytes read from this memory (Byte)
system.realview.bootmem.bytesRead::total          424                       # Number of bytes read from this memory (Byte)
system.realview.bootmem.bytesInstRead::cpu0.inst          108                       # Number of instructions bytes read from this memory (Byte)
system.realview.bootmem.bytesInstRead::cpu1.inst           88                       # Number of instructions bytes read from this memory (Byte)
system.realview.bootmem.bytesInstRead::cpu2.inst           88                       # Number of instructions bytes read from this memory (Byte)
system.realview.bootmem.bytesInstRead::cpu3.inst           88                       # Number of instructions bytes read from this memory (Byte)
system.realview.bootmem.bytesInstRead::total          372                       # Number of instructions bytes read from this memory (Byte)
system.realview.bootmem.numReads::cpu0.inst           27                       # Number of read requests responded to by this memory (Count)
system.realview.bootmem.numReads::cpu0.data            4                       # Number of read requests responded to by this memory (Count)
system.realview.bootmem.numReads::cpu1.inst           22                       # Number of read requests responded to by this memory (Count)
system.realview.bootmem.numReads::cpu1.data            1                       # Number of read requests responded to by this memory (Count)
system.realview.bootmem.numReads::cpu2.inst           22                       # Number of read requests responded to by this memory (Count)
system.realview.bootmem.numReads::cpu2.data            1                       # Number of read requests responded to by this memory (Count)
system.realview.bootmem.numReads::cpu3.inst           22                       # Number of read requests responded to by this memory (Count)
system.realview.bootmem.numReads::cpu3.data            1                       # Number of read requests responded to by this memory (Count)
system.realview.bootmem.numReads::total           100                       # Number of read requests responded to by this memory (Count)
system.realview.bootmem.bwRead::cpu0.inst          103                       # Total read bandwidth from this memory ((Byte/Second))
system.realview.bootmem.bwRead::cpu0.data           27                       # Total read bandwidth from this memory ((Byte/Second))
system.realview.bootmem.bwRead::cpu1.inst           84                       # Total read bandwidth from this memory ((Byte/Second))
system.realview.bootmem.bwRead::cpu1.data            8                       # Total read bandwidth from this memory ((Byte/Second))
system.realview.bootmem.bwRead::cpu2.inst           84                       # Total read bandwidth from this memory ((Byte/Second))
system.realview.bootmem.bwRead::cpu2.data            8                       # Total read bandwidth from this memory ((Byte/Second))
system.realview.bootmem.bwRead::cpu3.inst           84                       # Total read bandwidth from this memory ((Byte/Second))
system.realview.bootmem.bwRead::cpu3.data            8                       # Total read bandwidth from this memory ((Byte/Second))
system.realview.bootmem.bwRead::total             403                       # Total read bandwidth from this memory ((Byte/Second))
system.realview.bootmem.bwInstRead::cpu0.inst          103                       # Instruction read bandwidth from this memory ((Byte/Second))
system.realview.bootmem.bwInstRead::cpu1.inst           84                       # Instruction read bandwidth from this memory ((Byte/Second))
system.realview.bootmem.bwInstRead::cpu2.inst           84                       # Instruction read bandwidth from this memory ((Byte/Second))
system.realview.bootmem.bwInstRead::cpu3.inst           84                       # Instruction read bandwidth from this memory ((Byte/Second))
system.realview.bootmem.bwInstRead::total          354                       # Instruction read bandwidth from this memory ((Byte/Second))
system.realview.bootmem.bwTotal::cpu0.inst          103                       # Total bandwidth to/from this memory ((Byte/Second))
system.realview.bootmem.bwTotal::cpu0.data           27                       # Total bandwidth to/from this memory ((Byte/Second))
system.realview.bootmem.bwTotal::cpu1.inst           84                       # Total bandwidth to/from this memory ((Byte/Second))
system.realview.bootmem.bwTotal::cpu1.data            8                       # Total bandwidth to/from this memory ((Byte/Second))
system.realview.bootmem.bwTotal::cpu2.inst           84                       # Total bandwidth to/from this memory ((Byte/Second))
system.realview.bootmem.bwTotal::cpu2.data            8                       # Total bandwidth to/from this memory ((Byte/Second))
system.realview.bootmem.bwTotal::cpu3.inst           84                       # Total bandwidth to/from this memory ((Byte/Second))
system.realview.bootmem.bwTotal::cpu3.data            8                       # Total bandwidth to/from this memory ((Byte/Second))
system.realview.bootmem.bwTotal::total            403                       # Total bandwidth to/from this memory ((Byte/Second))
system.realview.bootmem.power_state.pwrStateResidencyTicks::UNDEFINED 1052276290000                       # Cumulative time (in ticks) in various power states (Tick)
system.realview.clock24MHz.clock                41667                       # Clock period in ticks (Tick)
system.realview.clock32KHz.clock             31250000                       # Clock period in ticks (Tick)
system.realview.dcc.osc_cpu.clock               16667                       # Clock period in ticks (Tick)
system.realview.dcc.osc_ddr.clock               25000                       # Clock period in ticks (Tick)
system.realview.dcc.osc_hsbm.clock              25000                       # Clock period in ticks (Tick)
system.realview.dcc.osc_pxl.clock               42105                       # Clock period in ticks (Tick)
system.realview.dcc.osc_smb.clock               20000                       # Clock period in ticks (Tick)
system.realview.dcc.osc_sys.clock               16667                       # Clock period in ticks (Tick)
system.realview.el2_watchdog.power_state.pwrStateResidencyTicks::UNDEFINED 1052276290000                       # Cumulative time (in ticks) in various power states (Tick)
system.realview.energy_ctrl.power_state.pwrStateResidencyTicks::UNDEFINED 1052276290000                       # Cumulative time (in ticks) in various power states (Tick)
system.realview.ethernet.EtherDevice.postedInterrupts           17                       # Number of posts to CPU (Count)
system.realview.ethernet.EtherDevice.descDmaReads            0                       # Number of descriptors the device read w/ DMA (Count)
system.realview.ethernet.EtherDevice.descDmaWrites            0                       # Number of descriptors the device wrote w/ DMA (Count)
system.realview.ethernet.EtherDevice.descDmaRdBytes            0                       # Number of descriptor bytes read w/ DMA (Count)
system.realview.ethernet.EtherDevice.descDmaWrBytes            0                       # Number of descriptor bytes write w/ DMA (Count)
system.realview.ethernet.EtherDevice.postedSwi            0                       # Number of software interrupts posted to CPU (Count)
system.realview.ethernet.EtherDevice.totalSwi            0                       # Total number of Swi written to ISR (Count)
system.realview.ethernet.EtherDevice.coalescedSwi            0                       # Average number of Swi's coalesced into each post ((Count/Count))
system.realview.ethernet.EtherDevice.postedRxIdle            0                       # Number of rxIdle interrupts posted to CPU (Count)
system.realview.ethernet.EtherDevice.totalRxIdle            0                       # Total number of RxIdle written to ISR (Count)
system.realview.ethernet.EtherDevice.coalescedRxIdle            0                       # Average number of RxIdle's coalesced into each post ((Count/Count))
system.realview.ethernet.EtherDevice.postedRxOk            0                       # Number of RxOk interrupts posted to CPU (Count)
system.realview.ethernet.EtherDevice.totalRxOk            0                       # Total number of RxOk written to ISR (Count)
system.realview.ethernet.EtherDevice.coalescedRxOk            0                       # Average number of RxOk's coalesced into each post ((Count/Count))
system.realview.ethernet.EtherDevice.postedRxDesc            0                       # Number of RxDesc interrupts posted to CPU (Count)
system.realview.ethernet.EtherDevice.totalRxDesc            0                       # Total number of RxDesc written to ISR (Count)
system.realview.ethernet.EtherDevice.coalescedRxDesc            0                       # Average number of RxDesc's coalesced into each post ((Count/Count))
system.realview.ethernet.EtherDevice.postedTxOk            0                       # Number of TxOk interrupts posted to CPU (Count)
system.realview.ethernet.EtherDevice.totalTxOk            0                       # Total number of TxOk written to ISR (Count)
system.realview.ethernet.EtherDevice.coalescedTxOk            0                       # Average number of TxOk's coalesced into each post ((Count/Count))
system.realview.ethernet.EtherDevice.postedTxIdle            0                       # Number of TxIdle interrupts posted to CPU (Count)
system.realview.ethernet.EtherDevice.totalTxIdle            0                       # Total number of TxIdle written to ISR (Count)
system.realview.ethernet.EtherDevice.coalescedTxIdle            0                       # Average number of TxIdle's coalesced into each post ((Count/Count))
system.realview.ethernet.EtherDevice.postedTxDesc            0                       # Number of TxDesc interrupts posted to CPU (Count)
system.realview.ethernet.EtherDevice.totalTxDesc            0                       # Total number of TxDesc written to ISR (Count)
system.realview.ethernet.EtherDevice.coalescedTxDesc            0                       # Average number of TxDesc's coalesced into each post ((Count/Count))
system.realview.ethernet.EtherDevice.postedRxOrn            0                       # Number of RxOrn posted to CPU (Count)
system.realview.ethernet.EtherDevice.totalRxOrn            0                       # Total number of RxOrn written to ISR (Count)
system.realview.ethernet.EtherDevice.coalescedRxOrn            0                       # Average number of RxOrn's coalesced into each post ((Count/Count))
system.realview.ethernet.EtherDevice.coalescedTotal            0                       # Average number of interrupts coalesced into each post ((Count/Count))
system.realview.ethernet.EtherDevice.droppedPackets            0                       # Number of packets dropped (Count)
system.realview.ethernet.power_state.pwrStateResidencyTicks::UNDEFINED 1052276290000                       # Cumulative time (in ticks) in various power states (Tick)
system.realview.flash0.power_state.pwrStateResidencyTicks::UNDEFINED 1052276290000                       # Cumulative time (in ticks) in various power states (Tick)
system.realview.flash1.power_state.pwrStateResidencyTicks::UNDEFINED 1052276290000                       # Cumulative time (in ticks) in various power states (Tick)
system.realview.generic_timer_mem.frames0.power_state.pwrStateResidencyTicks::UNDEFINED 1052276290000                       # Cumulative time (in ticks) in various power states (Tick)
system.realview.generic_timer_mem.frames1.power_state.pwrStateResidencyTicks::UNDEFINED 1052276290000                       # Cumulative time (in ticks) in various power states (Tick)
system.realview.generic_timer_mem.power_state.pwrStateResidencyTicks::UNDEFINED 1052276290000                       # Cumulative time (in ticks) in various power states (Tick)
system.realview.gic.power_state.pwrStateResidencyTicks::UNDEFINED 1052276290000                       # Cumulative time (in ticks) in various power states (Tick)
system.realview.gicv2m.power_state.pwrStateResidencyTicks::UNDEFINED 1052276290000                       # Cumulative time (in ticks) in various power states (Tick)
system.realview.io_voltage.voltage           3.300000                       # Voltage in Volts (Volt)
system.realview.kmi0.power_state.pwrStateResidencyTicks::UNDEFINED 1052276290000                       # Cumulative time (in ticks) in various power states (Tick)
system.realview.kmi1.power_state.pwrStateResidencyTicks::UNDEFINED 1052276290000                       # Cumulative time (in ticks) in various power states (Tick)
system.realview.mcc.osc_clcd.clock              42105                       # Clock period in ticks (Tick)
system.realview.mcc.osc_mcc.clock               20000                       # Clock period in ticks (Tick)
system.realview.mcc.osc_peripheral.clock        41667                       # Clock period in ticks (Tick)
system.realview.mcc.osc_system_bus.clock        41667                       # Clock period in ticks (Tick)
system.realview.non_trusted_sram.power_state.pwrStateResidencyTicks::UNDEFINED 1052276290000                       # Cumulative time (in ticks) in various power states (Tick)
system.realview.pci_host.power_state.pwrStateResidencyTicks::UNDEFINED 1052276290000                       # Cumulative time (in ticks) in various power states (Tick)
system.realview.pwr_ctrl.power_state.pwrStateResidencyTicks::UNDEFINED 1052276290000                       # Cumulative time (in ticks) in various power states (Tick)
system.realview.realview_io.power_state.pwrStateResidencyTicks::UNDEFINED 1052276290000                       # Cumulative time (in ticks) in various power states (Tick)
system.realview.rtc.power_state.pwrStateResidencyTicks::UNDEFINED 1052276290000                       # Cumulative time (in ticks) in various power states (Tick)
system.realview.system_watchdog.power_state.pwrStateResidencyTicks::UNDEFINED 1052276290000                       # Cumulative time (in ticks) in various power states (Tick)
system.realview.trusted_sram.power_state.pwrStateResidencyTicks::UNDEFINED 1052276290000                       # Cumulative time (in ticks) in various power states (Tick)
system.realview.trusted_watchdog.power_state.pwrStateResidencyTicks::UNDEFINED 1052276290000                       # Cumulative time (in ticks) in various power states (Tick)
system.realview.uart0.power_state.pwrStateResidencyTicks::UNDEFINED 1052276290000                       # Cumulative time (in ticks) in various power states (Tick)
system.realview.uart1.power_state.pwrStateResidencyTicks::UNDEFINED 1052276290000                       # Cumulative time (in ticks) in various power states (Tick)
system.realview.uart2.power_state.pwrStateResidencyTicks::UNDEFINED 1052276290000                       # Cumulative time (in ticks) in various power states (Tick)
system.realview.uart3.power_state.pwrStateResidencyTicks::UNDEFINED 1052276290000                       # Cumulative time (in ticks) in various power states (Tick)
system.realview.vgic.power_state.pwrStateResidencyTicks::UNDEFINED 1052276290000                       # Cumulative time (in ticks) in various power states (Tick)
system.realview.vio0.power_state.pwrStateResidencyTicks::UNDEFINED 1052276290000                       # Cumulative time (in ticks) in various power states (Tick)
system.realview.vio1.power_state.pwrStateResidencyTicks::UNDEFINED 1052276290000                       # Cumulative time (in ticks) in various power states (Tick)
system.realview.vram.power_state.pwrStateResidencyTicks::UNDEFINED 1052276290000                       # Cumulative time (in ticks) in various power states (Tick)
system.realview.watchdog.power_state.pwrStateResidencyTicks::UNDEFINED 1052276290000                       # Cumulative time (in ticks) in various power states (Tick)
system.voltage_domain.voltage                       1                       # Voltage in Volts (Volt)
system.workload.inst.arm                            0                       # number of arm instructions executed (Count)
system.workload.inst.quiesce                    43289                       # number of quiesce instructions executed (Count)

---------- End Simulation Statistics   ----------
